Circuit: * Porta Complexa F1 !(!(a ∗ d )+!(b ∗ c)) EQ (a * b * c * d)

Vind: Removing PWL point (1e-009,1)
Vind: Removing PWL point (1.1e-008,1)
Vinc: Removing PWL point (1e-009,1)
Vinc: Removing PWL point (1e-008,1)
Vinb: Removing PWL point (1e-009,1)
Vinb: Removing PWL point (7e-009,1)
Vina: Removing PWL point (4e-009,1)
Direct Newton iteration failed to find .op point.  (Use ".option noopiter" to skip.)
Starting Gmin stepping
Gmin = 10
Gmin = 1.07374
Gmin = 0.115292
Gmin = 0.0123794
Gmin = 0.00132923
Gmin = 0.000142725
Gmin = 1.5325e-005
Gmin = 1.6455e-006
Gmin = 1.76685e-007
Gmin = 1.89714e-008
Gmin = 2.03704e-009
Gmin = 2.18725e-010
Gmin = 2.34854e-011
Gmin = 2.52173e-012
Gmin = 2.70769e-013
Gmin = 0
Gmin stepping succeeded in finding the operating point.


atrasoa111lh=-9.63703e-010 FROM 2.01375e-009 TO 1.05005e-009
atrasoa111hl=1.03471e-009 FROM 1.01308e-009 TO 2.04779e-009
atraso1b11lh=-9.66966e-010 FROM 5.01208e-009 TO 4.04511e-009
atraso1b11hl=1.02786e-009 FROM 4.01162e-009 TO 5.03947e-009
atraso11c1lh=-9.73832e-010 FROM 8.01103e-009 TO 7.03719e-009
atraso11c1hl=1.0216e-009 FROM 7.01096e-009 TO 8.03256e-009

Measurement "atraso111dlh" FAIL'ed

Measurement "atraso111dhl" FAIL'ed
consumo_medio: AVG(i(v1)*-v(vdd))=1.25554e-006 FROM 0 TO 1.2e-008
consumo_estatico_a111hl: AVG(i(v1)*-v(vdd))=1.65661e-009 FROM 1.97e-009 TO 2e-009
consumo_estatico_a111lh: AVG(i(v1)*-v(vdd))=6.37264e-008 FROM 2.97e-009 TO 3e-009
consumo_estatico_1b11hl: AVG(i(v1)*-v(vdd))=2.0459e-008 FROM 3.97e-009 TO 4e-009
consumo_estatico_1b11lh: AVG(i(v1)*-v(vdd))=1.65896e-009 FROM 4.97e-009 TO 5e-009
consumo_estatico_11c1hl: AVG(i(v1)*-v(vdd))=1.06272e-008 FROM 5.97e-009 TO 6e-009
consumo_estatico_11c1lh: AVG(i(v1)*-v(vdd))=1.63187e-009 FROM 6.97e-009 TO 7e-009
consumo_estatico_111dhl: AVG(i(v1)*-v(vdd))=1.65797e-009 FROM 7.97e-009 TO 8e-009
consumo_estatico_111dlh: AVG(i(v1)*-v(vdd))=1.63032e-009 FROM 8.97e-009 TO 9e-009


Date: Sun Jul 23 21:16:35 2023
Total elapsed time: 0.192 seconds.

tnom = 27
temp = 27
method = Gear
totiter = 3188
traniter = 2781
tranpoints = 1222
accept = 1213
rejected = 9
matrix size = 162
fillins = 4
solver = Normal
Thread vector: 46.0/21.1[3] 6.7/2.7[3] 2.2/2.3[1] 0.6/1.0[1]  2592/500
Matrix Compiler1: 21.35 KB object code size  4.5/2.3/[1.8]
Matrix Compiler2: 19.42 KB object code size  2.4/2.6/[1.2]

