Circuit: * lib

Vind: Removing PWL point (6.3e-008,0)
Vinc: Removing PWL point (3e-009,0)
Vinc: Removing PWL point (9e-009,1)
Vinc: Removing PWL point (1.5e-008,0)
Vinc: Removing PWL point (2.4e-008,0)
Vinc: Removing PWL point (3e-008,1)
Vinc: Removing PWL point (3.6e-008,0)
Vinc: Removing PWL point (4.5e-008,0)
Vinc: Removing PWL point (4.9e-008,0)
Vinc: Removing PWL point (5.2e-008,0)
Vinc: Removing PWL point (5.5e-008,0)
Vinc: Removing PWL point (5.8e-008,0)
Vinb: Removing PWL point (3e-009,0)
Vinb: Removing PWL point (1.5e-008,1)
Vinb: Removing PWL point (2.4e-008,0)
Vinb: Removing PWL point (2.7e-008,0)
Vinb: Removing PWL point (3e-008,0)
Vinb: Removing PWL point (3.3e-008,0)
Vinb: Removing PWL point (3.6e-008,0)
Vinb: Removing PWL point (3.9e-008,0)
Vinb: Removing PWL point (4.2e-008,0)
Vinb: Removing PWL point (5.1e-008,1)
Vinb: Removing PWL point (5.7e-008,0)
Vinb: Removing PWL point (6.3e-008,1)
Vina: Removing PWL point (3e-009,0)
Vina: Removing PWL point (6e-009,0)
Vina: Removing PWL point (2.1e-008,0)
Direct Newton iteration failed to find .op point.  (Use ".option noopiter" to skip.)
Starting Gmin stepping
Gmin = 10
Gmin = 1.07374
Gmin = 0.115292
Gmin = 0.0123794
Gmin = 0.00132923
Gmin = 0.000142725
Gmin = 1.5325e-005
Gmin = 1.6455e-006
Gmin = 1.76685e-007
Gmin = 1.89714e-008
Gmin = 2.03704e-009
Gmin = 2.18725e-010
Gmin = 2.34854e-011
Gmin = 2.52173e-012
Gmin = 2.70769e-013
Gmin = 0
Gmin stepping succeeded in finding the operating point.


atr_a000lh=9.71716e-011 FROM 1.0005e-009 TO 1.09767e-009
atr_a000hl=1.35315e-010 FROM 2.0005e-009 TO 2.13581e-009
atr_a001lh=9.4052e-011 FROM 4.0005e-009 TO 4.09455e-009
atr_a001hl=1.35377e-010 FROM 5.0005e-009 TO 5.13588e-009
atr_a010lh=1.27393e-010 FROM 7.0005e-009 TO 7.12789e-009
atr_a010hl=1.19113e-010 FROM 8.0005e-009 TO 8.11961e-009
atr_a011lh=1.3003e-010 FROM 1.00005e-008 TO 1.01305e-008
atr_a011hl=1.19127e-010 FROM 1.10005e-008 TO 1.11196e-008
atr_a100lh=1.09177e-010 FROM 1.30005e-008 TO 1.31097e-008
atr_a100hl=1.0784e-010 FROM 1.40005e-008 TO 1.41083e-008
atr_a101lh=1.10347e-010 FROM 1.60005e-008 TO 1.61108e-008
atr_a101hl=1.07897e-010 FROM 1.70005e-008 TO 1.71084e-008
atr_a110lh=9.44361e-011 FROM 1.90005e-008 TO 1.90949e-008
atr_a110hl=1.2284e-010 FROM 2.00005e-008 TO 2.01233e-008
atr_0b00lh=8.98748e-011 FROM 2.2e-008 TO 2.20899e-008
atr_0b00hl=1.28474e-010 FROM 2.30001e-008 TO 2.31285e-008
atr_0b01lh=1.29077e-010 FROM 2.60001e-008 TO 2.61291e-008
atr_0b01hl=8.68779e-011 FROM 2.5e-008 TO 2.50869e-008
atr_0b10lh=1.46105e-010 FROM 2.8e-008 TO 2.81462e-008
atr_0b10hl=1.18763e-010 FROM 2.90001e-008 TO 2.91188e-008
atr_0b11lh=1.43524e-010 FROM 3.1e-008 TO 3.11436e-008
atr_0b11hl=1.18631e-010 FROM 3.20001e-008 TO 3.21187e-008
atr_1b00lh=9.90557e-011 FROM 3.4e-008 TO 3.40991e-008
atr_1b00hl=1.00731e-010 FROM 3.50001e-008 TO 3.51008e-008
atr_1b01lh=1.02578e-010 FROM 3.7e-008 TO 3.71026e-008
atr_1b01hl=1.06459e-010 FROM 3.80001e-008 TO 3.81065e-008
atr_1b10lh=1.05224e-010 FROM 4.10001e-008 TO 4.11053e-008
atr_1b10hl=8.5041e-011 FROM 4e-008 TO 4.00851e-008
atr_00c0lh=1.19591e-010 FROM 4.40001e-008 TO 4.41196e-008
atr_00c0hl=8.73551e-011 FROM 4.3e-008 TO 4.30874e-008
atr_00c1lh=1.19587e-010 FROM 4.70001e-008 TO 4.71196e-008
atr_00c1hl=8.03742e-011 FROM 4.6e-008 TO 4.60804e-008
atr_01c0lh=1.31854e-010 FROM 5.00001e-008 TO 5.01319e-008
atr_01c0hl=1.19589e-010 FROM 5.10001e-008 TO 5.11196e-008
atr_01c1lh=1.29162e-010 FROM 5.3e-008 TO 5.31292e-008
atr_01c1hl=1.1249e-010 FROM 5.40001e-008 TO 5.41125e-008
atr_10c0lh=1.07973e-010 FROM 5.6e-008 TO 5.6108e-008
atr_10c0hl=1.10224e-010 FROM 5.70001e-008 TO 5.71103e-008
atr_10c1lh=1.08438e-010 FROM 5.9e-008 TO 5.91085e-008
atr_10c1hl=1.08438e-010 FROM 5.9e-008 TO 5.91085e-008
atr_11c0lh=9.22959e-011 FROM 6.2e-008 TO 6.20923e-008
atr_11c0hl=7.41399e-011 FROM 6.10001e-008 TO 6.10742e-008
atr_111dlh=6.52271e-011 FROM 6.40005e-008 TO 6.40657e-008
atr_111dhl=6.90551e-011 FROM 6.50005e-008 TO 6.50696e-008
avg_cons: AVG(i(v1)*-v(vdd))=6.96514e-006 FROM 0 TO 6.6e-008
statica000hl: AVG(i(v1)*-v(vdd))=1.62237e-006 FROM 1.97e-009 TO 2e-009
statica000lh: AVG(i(v1)*v(vdd))=3.621e-006 FROM 2.97e-009 TO 3e-009
statica001hl: AVG(i(v1)*v(vdd))=-2.59792e-006 FROM 4.97e-009 TO 5e-009
statica001lh: AVG(i(v1)*v(vdd))=3.71782e-006 FROM 5.97e-009 TO 6e-009
statica010hl: AVG(i(v1)*v(vdd))=1.90706e-006 FROM 7.97e-009 TO 8e-009
statica010lh: AVG(i(v1)*-v(vdd))=-1.64636e-007 FROM 8.97e-009 TO 9e-009
statica011hl: AVG(i(v1)*v(vdd))=2.12444e-006 FROM 1.097e-008 TO 1.1e-008
statica011lh: AVG(i(v1)*-v(vdd))=-4.01122e-007 FROM 1.197e-008 TO 1.2e-008
statica100hl: AVG(i(v1)*v(vdd))=-9.15603e-007 FROM 1.397e-008 TO 1.4e-008
statica100lh: AVG(i(v1)*v(vdd))=6.97535e-007 FROM 1.497e-008 TO 1.5e-008
statica101hl: AVG(i(v1)*v(vdd))=-1.70629e-006 FROM 1.697e-008 TO 1.7e-008
statica101lh: AVG(i(v1)*v(vdd))=6.7516e-007 FROM 1.797e-008 TO 1.8e-008
statica110hl: AVG(i(v1)*v(vdd))=1.02479e-007 FROM 1.997e-008 TO 2e-008
statica110lh: AVG(i(v1)*-v(vdd))=-5.23808e-007 FROM 2.097e-008 TO 2.1e-008
static0b00hl: AVG(i(v1)*v(vdd))=-3.31126e-007 FROM 2.297e-008 TO 2.3e-008
static0b00lh: AVG(i(v1)*v(vdd))=5.20448e-006 FROM 2.397e-008 TO 2.4e-008
static0b01hl: AVG(i(v1)*v(vdd))=1.42624e-007 FROM 2.597e-008 TO 2.6e-008
static0b01lh: AVG(i(v1)*v(vdd))=5.12624e-006 FROM 2.697e-008 TO 2.7e-008
static0b10hl: AVG(i(v1)*-v(vdd))=8.84817e-007 FROM 2.897e-008 TO 2.9e-008
static0b10lh: AVG(i(v1)*v(vdd))=2.59521e-006 FROM 2.997e-008 TO 3e-008
static0b11hl: AVG(i(v1)*-v(vdd))=1.2745e-006 FROM 3.197e-008 TO 3.2e-008
static0b11lh: AVG(i(v1)*v(vdd))=2.91559e-006 FROM 3.297e-008 TO 3.3e-008
static1b00hl: AVG(i(v1)*-v(vdd))=3.13646e-006 FROM 3.497e-008 TO 3.5e-008
static1b00lh: AVG(i(v1)*v(vdd))=3.84354e-006 FROM 3.597e-008 TO 3.6e-008
static1b01hl: AVG(i(v1)*-v(vdd))=1.3554e-006 FROM 3.797e-008 TO 3.8e-008
static1b01lh: AVG(i(v1)*v(vdd))=2.93146e-006 FROM 3.897e-008 TO 3.9e-008
static1b10hl: AVG(i(v1)*-v(vdd))=-1.91751e-006 FROM 4.097e-008 TO 4.1e-008
static1b10lh: AVG(i(v1)*v(vdd))=1.79355e-006 FROM 4.197e-008 TO 4.2e-008
static00c0hl: AVG(i(v1)*-v(vdd))=6.21593e-006 FROM 4.397e-008 TO 4.4e-008
static00c0lh: AVG(i(v1)*v(vdd))=1.80794e-007 FROM 4.497e-008 TO 4.5e-008
static00c1hl: AVG(i(v1)*-v(vdd))=1.05575e-005 FROM 4.697e-008 TO 4.7e-008
static00c1lh: AVG(i(v1)*v(vdd))=1.77207e-007 FROM 4.797e-008 TO 4.8e-008
static01c0hl: AVG(i(v1)*-v(vdd))=7.70726e-007 FROM 4.997e-008 TO 5e-008
static01c0lh: AVG(i(v1)*v(vdd))=-9.63925e-007 FROM 5.097e-008 TO 5.1e-008
static01c1hl: AVG(i(v1)*v(vdd))=4.84628e-006 FROM 5.297e-008 TO 5.3e-008
static01c1lh: AVG(i(v1)*v(vdd))=-1.91519e-006 FROM 5.397e-008 TO 5.4e-008
static10c0hl: AVG(i(v1)*v(vdd))=1.91779e-006 FROM 5.597e-008 TO 5.6e-008
static10c0lh: AVG(i(v1)*v(vdd))=-4.57095e-006 FROM 5.697e-008 TO 5.7e-008
static10c1hl: AVG(i(v1)*v(vdd))=1.79735e-006 FROM 5.897e-008 TO 5.9e-008
static10c1lh: AVG(i(v1)*v(vdd))=-4.71823e-006 FROM 5.997e-008 TO 6e-008
static11c0hl: AVG(i(v1)*-v(vdd))=7.11926e-007 FROM 6.197e-008 TO 6.2e-008
static11c0lh: AVG(i(v1)*v(vdd))=2.91533e-006 FROM 6.297e-008 TO 6.3e-008
static111dhl: AVG(i(v1)*v(vdd))=1.08207e-006 FROM 6.497e-008 TO 6.5e-008
static111dlh: AVG(i(v1)*v(vdd))=-4.91419e-006 FROM 6.597e-008 TO 6.6e-008


Date: Sun Jul 30 17:54:31 2023
Total elapsed time: 1.134 seconds.

tnom = 27
temp = 27
method = modified trap
totiter = 8797
traniter = 8336
tranpoints = 2399
accept = 2293
rejected = 106
matrix size = 324
fillins = 54
solver = Normal
Thread vector: 84.9/37.3[4] 13.1/4.3[4] 4.8/3.9[3] 1.3/2.1[1]  2592/500
Matrix Compiler1: 57.60 KB object code size  14.5/5.8/[3.9]
Matrix Compiler2: 42.02 KB object code size  7.0/4.8/[2.2]

